deliverables/chatgpt_bundle_20261005/05_codesign_campaigns_experiments/experiments/graph_gain_geometry_20261004/causal_audit/TABLE_01_INSTANTANEOUS_ALGEBRAIC.csv
common_rho,bus,delta_MW,F_zero_Hz,R_zero_Hz_s,Vmin_zero_pu,Vmax_zero_pu,max_phase_rad,max_phase_bus,instantaneous_gate_pass,trim_voltage_error_inf,jump_identity_error_inf,gain_voltage_error_inf,condition_G_event
0.0,8,-100.0,0.00551456365917525,0.0110291273183505,0.9853993955379919,1.0646900006299467,0.017324512679418213,8,true,2.6645352591003757e-15,2.886579864025407e-15,0.0,207.2183987172757
0.0,16,100.0,0.0035607702179115824,0.007121540435823165,0.9806181974135144,1.0609867092781533,0.011186489557712355,16,true,2.6645352591003757e-15,3.1086244689504383e-15,0.0,206.27338944334892
0.0,16,-100.0,0.003582466418729866,0.007164932837459732,0.9833426949211764,1.0659521369015448,0.011254650182813884,16,true,2.6645352591003757e-15,3.1086244689504383e-15,0.0,207.15551434301392
0.0,29,100.0,0.008605626181241737,0.017211252362483474,0.981326066172243,1.0625865167431043,0.027035371990529026,29,true,2.6645352591003757e-15,2.6645352591003757e-15,0.0,206.3921378844107
0.0,29,-100.0,0.008706584988737684,0.017413169977475367,0.9826186990047147,1.0643574678043277,0.02735254343847348,29,true,2.6645352591003757e-15,2.6645352591003757e-15,0.0,207.02379057518448
0.875,8,-100.0,0.007211543024409005,0.01442308604881801,0.9954815879539171,1.073900107580021,0.02265573058653005,8,true,1.0180745135812685e-13,1.0302869668521453e-13,0.0,577.549268975619
0.875,16,100.0,0.004803849274154686,0.009607698548309371,0.9721083659192574,1.0484927665542856,0.01509173758863702,16,true,1.0180745135812685e-13,1.0180745135812685e-13,0.0,564.8124100513436
0.875,16,-100.0,0.004934619100608796,0.009869238201217592,0.9920295313210313,1.0787135984023526,0.015502563114736466,16,true,1.0180745135812685e-13,1.0236256287043943e-13,0.0,578.77475863102
0.875,29,100.0,0.013481294599820745,0.02696258919964149,0.9733884855031921,1.0525079707409442,0.0423527360756766,29,true,1.0180745135812685e-13,1.0125233984581428e-13,0.0,564.2215028857498
0.875,29,-100.0,0.014118240386167324,0.02823648077233465,0.9906947469019716,1.0747306417957747,0.04435376027879799,29,true,1.0180745135812685e-13,1.0180745135812685e-13,0.0,579.3476747378215
0.95,8,-100.0,0.006754609476744419,0.013509218953488838,1.0007164864289404,1.0782616305138852,0.021220231510008264,8,true,1.0869083411080283e-13,1.1035616864774056e-13,0.0,716.77805079557
0.95,16,100.0,0.003876342567076021,0.007752685134152042,0.9678890940364493,1.0437999053428608,0.012177889331523428,16,true,1.0869083411080283e-13,1.084687895058778e-13,0.0,694.245305736531
0.95,16,-100.0,0.004019125895912292,0.008038251791824585,0.9965775913532,1.0838111827781856,0.012626456388450552,16,true,1.0869083411080283e-13,1.0891287871572786e-13,0.0,717.8002496367787
0.95,29,100.0,0.013020285037590966,0.026040570075181933,0.9688767681672497,1.0479779958595083,0.04090443182174088,29,true,1.0869083411080283e-13,1.0791367799356522e-13,0.0,693.1884541849265
0.95,29,-100.0,0.01381769241753157,0.02763538483506314,0.9958208635990011,1.0811132688787612,0.04340956098848057,29,true,1.0869083411080283e-13,1.0835776720341528e-13,0.0,719.1354041936587
0.99,8,-100.0,0.005449751896808812,0.010899503793617624,1.003782810507525,1.0795202368771557,0.017120900522901605,8,true,1.028066520802895e-13,1.0391687510491465e-13,0.0,786.4517715553219
0.99,16,100.0,0.002483046487760833,0.004966092975521666,0.9661344951839814,1.042658314304139,0.007800720604471372,16,true,1.028066520802895e-13,1.0236256287043943e-13,0.0,757.9547476561531
0.99,16,-100.0,0.0025827784746108263,0.005165556949221653,0.9985432120052438,1.085158906873229,0.008114037881687224,16,true,1.028066520802895e-13,1.0247358517290195e-13,0.0,785.8670825962291
0.99,29,100.0,0.011832772754348003,0.023665545508696005,0.9667232966162901,1.046817894726264,0.03717375195665715,29,true,1.028066520802895e-13,1.0247358517290195e-13,0.0,756.7406026752748
0.99,29,-100.0,0.012626684829308196,0.025253369658616392,0.9985816136119361,1.0843470914541962,0.039667900298948316,29,true,1.028066520802895e-13,1.0191847366058937e-13,0.0,787.7299613852471
0.999,8,-100.0,0.004951630972050416,0.009903261944100832,1.0041457092146064,1.0792287544362156,0.015556007485081272,8,true,1.000310945187266e-13,1.0103029524088925e-13,0.0,793.9733111110629
0.999,16,100.0,0.002519540667937064,0.005039081335874128,0.9661491980083767,1.0429397654186665,0.0079153704528118,38,true,1.000310945187266e-13,9.947598300641403e-14,0.0,764.9077118225891
0.999,16,-100.0,0.0024640666175658513,0.004928133235131703,0.9985459496326807,1.084879515576692,0.0077410935837007285,38,true,1.000310945187266e-13,9.980904991380157e-14,0.0,792.76928018518
0.999,29,100.0,0.011463229373246557,0.022926458746493114,0.9666255925266587,1.047105980904657,0.03601279718540611,29,true,1.000310945187266e-13,1.000310945187266e-13,0.0,763.7097421339676
0.999,29,-100.0,0.012234869459723897,0.024469738919447794,0.9988124280726405,1.0845125885277096,0.038436976012298715,29,true,1.000310945187266e-13,9.892087149410145e-14,0.0,794.707330826086
1.0,8,-100.0,0.0048910275219102685,0.009782055043820537,1.0041703049463462,1.0791747589475724,0.01536561613133879,8,true,9.958700530887654e-14,1.0080825063596421e-13,0.0,794.4583567372
1.0,16,100.0,0.0025676308709881857,0.005135261741976371,0.9661672021355427,1.0429892933366716,0.008066450281426846,38,true,9.958700530887654e-14,9.947598300641403e-14,0.0,765.366467053226
1.0,16,-100.0,0.002514532933283935,0.00502906586656787,0.9985285537218939,1.0848284976868559,0.007899638190414403,38,true,9.958700530887654e-14,9.903189379656396e-14,0.0,793.181051219148
1.0,29,100.0,0.01142113669492724,0.02284227338985448,0.9666310067520839,1.0471572364317259,0.03588055913642822,29,true,9.958700530887654e-14,1.0014211682118912e-13,0.0,764.172111598162
1.0,29,-100.0,0.012189752794287374,0.024379505588574747,0.9988207565377311,1.0845094806686089,0.038295237827608866,29,true,9.958700530887654e-14,9.85878045867139e-14,0.0,795.125149614679
